Co-MOF-74_2016-09-08_12:07:03
#******************************************
#
# file created by Zeo++
# Zeo++ is an open source package to
# analyze microporous materials
#
#*******************************************
_cell_length_a                  26.1988
_cell_length_b                  45.3777
_cell_length_c                  6.88911
_cell_angle_alpha               90
_cell_angle_beta                90
_cell_angle_gamma               90

_symmetry_space_group_name_H-M  'P1'
_symmetry_Int_Tables_number     1
_symmetry_cell_setting          Orthorhombic

loop_
_symmetry_equiv_pos_as_xyz
'+x,+y,+z'

loop_
_atom_site_label
_atom_site_type_symbol
_atom_site_fract_x
_atom_site_fract_y
_atom_site_fract_z
1    Br   0.92121     0.483781    0.571318
2    Br   0.42121     0.983781    0.571318
3    Br   0.92121     0.150441    0.904657
4    Br   0.42121     0.650441    0.904657
5    Cl   0.904014    0.176375    0.495224
6    Cl   0.404014    0.676374    0.495224
7    O   0.867925    0.164675    0.140236
8    O   0.367925    0.664675    0.140236
9    O   0.867927    0.49801     0.80693
10   O   0.367927    0.99801     0.80693
11   O   0.818999    0.184956    0.806901
12   O   0.318999    0.684956    0.806901
13   Br   0.813732    0.218723    0.571327
14   Br   0.313732    0.718723    0.571327
15   Cl   0.812553    0.459808    0.49524
16   Cl   0.312553    0.959808    0.49524
17   O   0.813036    0.483702    0.140264
18   O   0.313036    0.983702    0.140264
19   Br   0.765054    0.464169    0.904648
20   Br   0.265054    0.964169    0.904648
21   Br   0.734947    0.369165    0.762014
22   Br   0.234947    0.869165    0.762014
23   Cl   0.71654     0.302836    0.838082
24   Cl   0.21654     0.802836    0.838082
25   O   0.686965    0.349633    0.526398
26   O   0.186965    0.849633    0.526398
27   Cl   0.687447    0.373526    0.171422
28   Cl   0.187447    0.873526    0.171422
29   Cl   0.404015    0.00970646  0.161903
30   Cl   0.904015    0.509706    0.161903
31   Cl   0.404016    0.34304     0.828571
32   Cl   0.904016    0.84304     0.828571
33   Br   0.421214    0.317108    0.237999
34   Br   0.921214    0.817108    0.237999
35   Br   0.578787    0.016225    0.428671
36   Br   0.0787865   0.516225    0.428671
37   Br   0.578791    0.349553    0.0953368
38   Br   0.0787912   0.849553    0.0953368
39   Cl   0.595986    0.323628    0.504759
40   Cl   0.0959857   0.823628    0.504759
41   O   0.632074    0.335325    0.859732
42   O   0.132074    0.835325    0.859732
43   O   0.632074    0.00199921  0.19306
44   O   0.132074    0.501999    0.19306
45   O   0.68099     0.315039    0.19306
46   O   0.18099     0.815039    0.19306
47   Br   0.686269    0.281275    0.428655
48   Br   0.186269    0.781275    0.428655
49   Cl   0.687477    0.0401855   0.504747
50   Cl   0.187477    0.540186    0.504747
51   O   0.686947    0.0163087   0.859741
52   O   0.186947    0.516309    0.859741
53   Br   0.734949    0.0358302   0.0953332
54   Br   0.234949    0.53583     0.0953332
55   Br   0.76504     0.130839    0.237989
56   Br   0.26504     0.630839    0.237989
57   Br   0.078788    0.182892    0.762006
58   Br   0.578788    0.682892    0.762006
59   Cl   0.0959843   0.156959    0.171438
60   Cl   0.595984    0.656959    0.171438
61   Cl   0.0959852   0.490293    0.838091
62   Cl   0.595985    0.990293    0.838091
63   Cl   0.783458    0.197163    0.161895
64   Cl   0.283458    0.697163    0.161895
65   O   0.813052    0.150359    0.473559
66   O   0.313052    0.650359    0.473559
67   Cl   0.812527    0.12648     0.828565
68   Cl   0.312527    0.62648     0.828565
69   O   0.132073    0.168658    0.526426
70   O   0.632073    0.668658    0.526426
71   O   0.180999    0.148377    0.859761
72   O   0.680999    0.648377    0.859761
73   O   0.180979    0.481706    0.526387
74   O   0.680979    0.981706    0.526387
75   Br   0.186266    0.114611    0.0953276
76   Br   0.686266    0.614611    0.0953276
77   Br   0.186278    0.447947    0.761998
78   Br   0.686278    0.947947    0.761998
79   Cl   0.187471    0.206853    0.838097
80   Cl   0.687471    0.706853    0.838097
81   O   0.186945    0.182974    0.193103
82   O   0.686945    0.682974    0.193103
83   Cl   0.216541    0.13617     0.504767
84   Cl   0.716541    0.63617     0.504767
85   Cl   0.216563    0.469512    0.171422
86   Cl   0.716563    0.969513    0.171422
87   Br   0.234959    0.202494    0.42868
88   Br   0.734959    0.702494    0.42868
89   Br   0.265051    0.297502    0.571321
90   Br   0.765051    0.797502    0.571321
91   Cl   0.28346     0.0304987   0.82858
92   Cl   0.78346     0.530499    0.82858
93   Cl   0.283438    0.36382     0.49524
94   Cl   0.783438    0.86382     0.49524
95   O   0.313055    0.317024    0.806921
96   O   0.813055    0.817024    0.806921
97   Cl   0.312524    0.293147    0.161915
98   Cl   0.812524    0.793147    0.161915
99   Br   0.313731    0.0520588   0.238014
100  Br   0.813731    0.552059    0.238014
101  Br   0.313723    0.385385    0.904664
102  Br   0.813723    0.885385    0.904664
103  O   0.319011    0.0182954   0.473602
104  O   0.819011    0.518295    0.473602
105  O   0.319022    0.351627    0.140275
106  O   0.819022    0.851627    0.140275
107  O   0.367928    0.331333    0.473602
108  O   0.867928    0.831333    0.473602
109  B   0.993991    0.174728    0.526038
110  B   0.493991    0.674728    0.526038
111  F   0.956787    0.163358    0.213386
112  F   0.456787    0.663358    0.213386
113  F   0.956788    0.496692    0.880056
114  F   0.456788    0.996692    0.880056
115  N   0.950048    0.171527    0.412336
116  N   0.450048    0.671527    0.412336
117  C   0.913289    0.492529    0.744555
118  C   0.413289    0.992529    0.744555
119  C   0.913288    0.159193    0.0778792
120  C   0.413288    0.659193    0.0778792
121  C   0.804568    0.210381    0.744541
122  C   0.304568    0.710381    0.744541
123  N   0.782269    0.439214    0.412339
124  N   0.282269    0.939214    0.412339
125  C   0.782141    0.463759    0.0778768
126  C   0.282141    0.963759    0.0778768
127  F   0.776586    0.230056    0.880051
128  F   0.276586    0.730056    0.880051
129  F   0.766642    0.439927    0.213382
130  F   0.266642    0.939927    0.213382
131  B   0.765101    0.415642    0.526042
132  B   0.265101    0.915642    0.526042
133  B   0.759097    0.257037    0.807291
134  B   0.259097    0.757037    0.807291
135  B   0.734899    0.417692    0.140621
136  B   0.234899    0.917692    0.140621
137  F   0.733359    0.393408    0.453281
138  F   0.233359    0.893408    0.453281
139  N   0.732304    0.277405    0.92097
140  N   0.232304    0.777405    0.92097
141  C   0.71786     0.369575    0.588785
142  C   0.21786     0.869575    0.588785
143  N   0.717731    0.39412     0.254324
144  N   0.217731    0.89412     0.254324
145  B   0.00600695  0.158605    0.140624
146  B   0.506007    0.658605    0.140624
147  B   0.00600606  0.491938    0.807294
148  B   0.506006    0.991938    0.807294
149  F   0.0432113   0.169975    0.453276
150  F   0.543211    0.669975    0.453276
151  N   0.04995     0.495139    0.920991
152  N   0.54995     0.995139    0.920991
153  N   0.0499505   0.161806    0.254326
154  N   0.54995     0.661806    0.254326
155  C   0.413291    0.325857    0.411226
156  C   0.913291    0.825857    0.411226
157  N   0.450051    0.338194    0.745672
158  N   0.950051    0.838194    0.745672
159  N   0.450048    0.0048591   0.0790079
160  N   0.950048    0.504859    0.0790079
161  F   0.45679     0.330025    0.546725
162  F   0.95679     0.830025    0.546725
163  B   0.493993    0.00805999  0.192705
164  B   0.993993    0.50806     0.192705
165  B   0.493994    0.341396    0.859371
166  B   0.993994    0.841396    0.859371
167  B   0.506009    0.325273    0.473955
168  B   0.00600903  0.825273    0.473955
169  F   0.543213    0.336642    0.786604
170  F   0.0432135   0.836642    0.786604
171  F   0.543211    0.0033079   0.11994
172  F   0.0432105   0.503308    0.11994
173  N   0.549953    0.328475    0.587652
174  N   0.0499532   0.828475    0.587652
175  C   0.586709    0.00747509  0.25543
176  C   0.0867092   0.507475    0.25543
177  C   0.586713    0.340805    0.922113
178  C   0.086713    0.840805    0.922113
179  C   0.69543     0.289616    0.255436
180  C   0.19543     0.789616    0.255436
181  N   0.717739    0.060781    0.587632
182  N   0.217739    0.560781    0.587632
183  C   0.717861    0.0362391   0.922127
184  C   0.217861    0.536239    0.922127
185  F   0.723416    0.269943    0.119933
186  F   0.223416    0.769943    0.119933
187  F   0.733377    0.0600681   0.786602
188  F   0.233377    0.560068    0.786602
189  B   0.734894    0.0843625   0.473948
190  B   0.234894    0.584363    0.473948
191  B   0.740906    0.242963    0.192696
192  B   0.240906    0.742963    0.192696
193  B   0.765107    0.0823037   0.85937
194  B   0.265107    0.582304    0.85937
195  C   0.0867106   0.17414     0.588783
196  C   0.586711    0.67414     0.588783
197  F   0.766622    0.106598    0.546714
198  F   0.266622    0.606598    0.546714
199  N   0.7677      0.222594    0.0790169
200  N   0.2677      0.722594    0.0790169
201  C   0.782136    0.130428    0.411196
202  C   0.282136    0.630428    0.411196
203  N   0.782262    0.105884    0.745683
204  N   0.282262    0.605884    0.745683
205  C   0.195429    0.122953    0.922128
206  C   0.695429    0.622953    0.922128
207  C   0.195437    0.456285    0.588776
208  C   0.695437    0.956285    0.588776
209  N   0.217737    0.227449    0.920981
210  N   0.717737    0.727449    0.920981
211  C   0.217863    0.202906    0.25546
212  C   0.717863    0.702906    0.25546
213  F   0.223412    0.103278    0.786609
214  F   0.723412    0.603278    0.786609
215  F   0.223433    0.436617    0.453275
216  F   0.723433    0.936617    0.453275
217  N   0.232299    0.11074     0.587643
218  N   0.732299    0.61074     0.587643
219  N   0.232312    0.444073    0.25432
220  N   0.732312    0.944073    0.25432
221  F   0.233377    0.226735    0.11995
222  F   0.733377    0.726735    0.11995
223  B   0.234894    0.25103     0.807294
224  B   0.734894    0.75103     0.807294
225  B   0.240902    0.0762964   0.859372
226  B   0.740902    0.576296    0.859372
227  B   0.240916    0.40963     0.526037
228  B   0.740916    0.90963     0.526037
229  B   0.259093    0.0903712   0.473964
230  B   0.759093    0.590371    0.473964
231  B   0.259085    0.423702    0.140625
232  B   0.759085    0.923702    0.140625
233  B   0.265105    0.24897     0.192712
234  B   0.765105    0.74897     0.192712
235  F   0.266623    0.273264    0.880058
236  F   0.766623    0.773264    0.880058
237  N   0.267696    0.0559289   0.745694
238  N   0.767696    0.555929    0.745694
239  N   0.267689    0.38926     0.412343
240  N   0.767689    0.88926     0.412343
241  F   0.276584    0.0633906   0.546731
242  F   0.776584    0.563391    0.546731
243  F   0.276568    0.396716    0.213387
244  F   0.776568    0.896716    0.213387
245  C   0.28214     0.297093    0.744542
246  C   0.78214     0.797093    0.744542
247  N   0.282261    0.272551    0.0790271
248  N   0.78226     0.772551    0.0790271
249  C   0.304572    0.0437177   0.41122
250  C   0.804572    0.543718    0.41122
251  C   0.304564    0.377047    0.0778869
252  C   0.804564    0.877047    0.0778869
253  H    0.989711    0.181236    0.67733
254  H    0.489711    0.681236    0.67733
255  H    0.777009    0.414531    0.677336
256  H    0.277009    0.914531    0.677336
257  H    0.766707    0.262432    0.655986
258  H    0.266707    0.762432    0.655986
259  H    0.722992    0.418804    0.989327
260  H    0.222992    0.918804    0.989327
261  H    0.0102875   0.152097    0.989332
262  H    0.510287    0.652097    0.989332
263  H    0.0102862   0.485429    0.655998
264  H    0.510286    0.985429    0.655998
265  H    0.489712    0.0145692   0.344
266  H    0.989712    0.514569    0.344
267  H    0.489715    0.347904    0.0106631
268  H    0.989715    0.847904    0.0106631
269  H    0.510289    0.318764    0.322664
270  H    0.0102893   0.818764    0.322664
271  H    0.722996    0.0854703   0.322642
272  H    0.222996    0.58547     0.322642
273  H    0.733296    0.237568    0.344001
274  H    0.233296    0.737568    0.344001
275  H    0.777004    0.081195    0.0106755
276  H    0.277004    0.581195    0.0106755
277  H    0.222995    0.252138    0.655985
278  H    0.722995    0.752138    0.655985
279  H    0.233292    0.070902    0.0106741
280  H    0.733292    0.570902    0.0106741
281  H    0.233296    0.404233    0.677328
282  H    0.733296    0.904233    0.677328
283  H    0.266704    0.0957657   0.322663
284  H    0.766704    0.595766    0.322663
285  H    0.266705    0.4291      0.989334
286  H    0.766705    0.9291      0.989334
287  H    0.277004    0.247862    0.344021
288  H    0.777004    0.747862    0.344021
289  Co  0.86685     0.486321    0.365063
290  Co  0.36685     0.986321    0.365063
291  Co  0.796044    0.490078    0.698431
292  Co  0.296044    0.990078    0.698431
293  Co  0.337095    0.023612    0.0317232
294  Co  0.837095    0.523612    0.0317232
295  Co  0.633139    0.0136803   0.634897
296  Co  0.133139    0.51368     0.634897
297  Co  0.703962    0.00992359  0.301616
298  Co  0.203962    0.509924    0.301616
299  Co  0.162902    0.476398    0.968254
300  Co  0.662902    0.976397    0.968254
301  Co  0.866861    0.152989    0.698403
302  Co  0.366861    0.652989    0.698403
303  Co  0.83709     0.190275    0.365027
304  Co  0.33709     0.690275    0.365027
305  Co  0.796036    0.156735    0.0317165
306  Co  0.296036    0.656735    0.0317165
307  Co  0.133138    0.180345    0.96826
308  Co  0.633138    0.680345    0.96826
309  Co  0.162909    0.143058    0.301634
310  Co  0.662909    0.643058    0.301634
311  Co  0.203962    0.176598    0.634946
312  Co  0.703962    0.676598    0.634946
313  Co  0.296039    0.323409    0.365046
314  Co  0.796039    0.823409    0.365046
315  Co  0.337099    0.356935    0.698409
316  Co  0.837099    0.856935    0.698409
317  Co  0.366862    0.319652    0.0317647
318  Co  0.866862    0.819652    0.0317647
319  Co  0.703957    0.343256    0.968232
320  Co  0.203957    0.843256    0.968232
321  Co  0.633151    0.347013    0.301598
322  Co  0.133151    0.847013    0.301598
323  Co  0.662906    0.309722    0.634939
324  Co  0.162906    0.809722    0.634939
