Mg-MOF-74_2016-09-08_12:07:03
#******************************************
#
# file created by Zeo++
# Zeo++ is an open source package to
# analyze microporous materials
#
#*******************************************

_cell_length_a                  26.1136
_cell_length_b                  45.23
_cell_length_c                  6.91674
_cell_angle_alpha               90
_cell_angle_beta                90
_cell_angle_gamma               90

_symmetry_space_group_name_H-M  'P1'
_symmetry_Int_Tables_number     1
_symmetry_cell_setting          Orthorhombic

loop_
_symmetry_equiv_pos_as_xyz
'+x,+y,+z'

loop_
_atom_site_label
_atom_site_type_symbol
_atom_site_fract_x
_atom_site_fract_y
_atom_site_fract_z
1    Mg  0.203503  0.176125  0.635117
2    Mg  0.703503  0.676125  0.635117
3    Mg  0.162434  0.143519  0.301784
4    Mg  0.662434  0.643519  0.301784
5    Mg  0.13406   0.180357  0.968448
6    Mg  0.63406   0.680357  0.968448
7    Mg  0.296497  0.323875  0.364879
8    Mg  0.796497  0.823875  0.364879
9    Mg  0.337566  0.356481  0.698212
10   Mg  0.837566  0.856481  0.698212
11   Mg  0.36594   0.319643  0.031544
12   Mg  0.86594   0.819643  0.031544
13   Mg  0.337564  0.689814  0.364879
14   Mg  0.837564  0.189814  0.364879
15   Mg  0.365938  0.652976  0.698212
16   Mg  0.865938  0.152976  0.698212
17   Mg  0.162435  0.476852  0.968448
18   Mg  0.662435  0.976852  0.968448
19   Mg  0.337565  0.023149  0.031544
20   Mg  0.837565  0.523148  0.031544
21   Mg  0.203505  0.842792  0.968448
22   Mg  0.703505  0.342792  0.968448
23   Mg  0.296495  0.990543  0.698212
24   Mg  0.796495  0.490543  0.698212
25   Mg  0.365939  0.986311  0.364879
26   Mg  0.865939  0.486311  0.364879
27   Mg  0.134062  0.847024  0.301784
28   Mg  0.634062  0.347024  0.301784
29   Mg  0.162436  0.810186  0.635117
30   Mg  0.662436  0.310186  0.635117
31   Mg  0.203505  0.509457  0.301784
32   Mg  0.703505  0.009457  0.301784
33   Mg  0.134061  0.513689  0.635117
34   Mg  0.634061  0.013689  0.635117
35   Mg  0.296495  0.657208  0.031544
36   Mg  0.796495  0.157208  0.031544
37   C  0.218439  0.20275   0.255002
38   C  0.71844   0.70275   0.255002
39   F  0.233514  0.226564  0.119132
40   F  0.733514  0.726564  0.119132
41   B  0.265466  0.248909  0.190715
42   B  0.765466  0.748909  0.190715
43   H   0.277556  0.247745  0.341035
44   H   0.777556  0.747745  0.341035
45   Br  0.235467  0.20208   0.427043
46   Br  0.735467  0.70208   0.427043
47   O  0.186931  0.182828  0.193192
48   O  0.686931  0.682827  0.193192
49   Cl  0.313372  0.293095  0.161828
50   Cl  0.813372  0.793095  0.161828
51   O  0.180774  0.148453  0.859862
52   O  0.680774  0.648453  0.859862
53   O  0.132291  0.16872   0.526528
54   O  0.632291  0.66872   0.526528
55   Cl  0.186628  0.206905  0.838168
56   Cl  0.686628  0.706905  0.838168
57   Cl  0.217042  0.136567  0.504834
58   Cl  0.717042  0.636566  0.504834
59   N  0.21722   0.227379  0.921397
60   N  0.71722   0.727378  0.921397
61   C  0.281561  0.29725   0.744994
62   C  0.781561  0.79725   0.744994
63   F  0.266486  0.273436  0.880864
64   F  0.766486  0.773436  0.880864
65   N  0.28278   0.272622  0.078595
66   N  0.78278   0.772622  0.078595
67   B  0.234534  0.251091  0.809281
68   B  0.734534  0.751091  0.809281
69   H   0.222444  0.252255  0.658961
70   H   0.722444  0.752255  0.658961
71   Br  0.264533  0.29792   0.572953
72   Br  0.764533  0.797921  0.572953
73   O  0.313069  0.317173  0.806804
74   O  0.813069  0.817173  0.806804
75   O  0.319226  0.351547  0.140134
76   O  0.819226  0.851547  0.140134
77   O  0.367709  0.33128   0.473468
78   O  0.867709  0.83128   0.473468
79   Cl  0.282958  0.363434  0.495162
80   Cl  0.782958  0.863433  0.495162
81   O  0.367707  0.664613  0.140134
82   O  0.867707  0.164614  0.140134
83   O  0.319224  0.684879  0.806804
84   O  0.819224  0.184879  0.806804
85   O  0.180775  0.481786  0.526528
86   O  0.680775  0.981786  0.526528
87   Cl  0.217043  0.469899  0.1715
88   Cl  0.717043  0.969899  0.1715
89   O  0.319225  0.018214  0.473468
90   O  0.819225  0.518214  0.473468
91   Cl  0.282957  0.030101  0.828496
92   Cl  0.782957  0.530101  0.828496
93   Cl  0.18663   0.873572  0.1715
94   Cl  0.68663   0.373572  0.1715
95   C  0.218439  0.869416  0.588325
96   C  0.718439  0.369416  0.588325
97   F  0.233517  0.893232  0.452469
98   F  0.733517  0.393232  0.452469
99   N  0.21722   0.894045  0.254732
100  N  0.71722   0.394045  0.254732
101  B  0.265465  0.915575  0.524047
102  B  0.765465  0.415575  0.524047
103  H   0.277557  0.914412  0.674369
104  H   0.777557  0.414412  0.674369
105  Br  0.23547   0.868747  0.760383
106  Br  0.73547   0.368746  0.760383
107  O  0.186934  0.849495  0.526528
108  O  0.686934  0.349495  0.526528
109  F  0.266484  0.940103  0.214193
110  F  0.766484  0.440103  0.214193
111  N  0.282781  0.93929   0.411932
112  N  0.782781  0.43929   0.411932
113  B  0.234536  0.91776   0.142616
114  B  0.734536  0.417759  0.142616
115  O  0.313067  0.98384   0.140134
116  O  0.813067  0.48384   0.140134
117  Cl  0.313371  0.959762  0.495162
118  Cl  0.813371  0.459762  0.495162
119  Cl  0.217044  0.803234  0.838168
120  Cl  0.717044  0.303233  0.838168
121  C  0.281562  0.963918  0.078337
122  C  0.781562  0.463918  0.078337
123  Br  0.264531  0.964588  0.906279
124  Br  0.764531  0.464588  0.906279
125  O  0.367707  0.997948  0.806804
126  O  0.867707  0.497948  0.806804
127  O  0.180776  0.815121  0.193192
128  O  0.680776  0.315121  0.193192
129  O  0.132293  0.835386  0.859862
130  O  0.632293  0.335387  0.859862
131  Cl  0.096328  0.489861  0.838168
132  Cl  0.596328  0.989861  0.838168
133  N  0.050322  0.494921  0.921397
134  N  0.550322  0.994921  0.921397
135  C  0.413345  0.992155  0.744994
136  C  0.913345  0.492155  0.744994
137  F  0.456603  0.996525  0.880864
138  F  0.956603  0.496525  0.880864
139  B  0.006096  0.491722  0.809281
140  B  0.506096  0.991722  0.809281
141  H   0.010395  0.485094  0.658961
142  H   0.510395  0.985094  0.658961
143  Br  0.420853  0.983306  0.572953
144  Br  0.920853  0.483306  0.572953
145  N  0.232458  0.777701  0.921397
146  N  0.732458  0.277701  0.921397
147  C  0.305095  0.710595  0.744994
148  C  0.805095  0.210595  0.744994
149  F  0.276911  0.730039  0.880864
150  F  0.776911  0.230039  0.880864
151  B  0.25937   0.757187  0.809281
152  B  0.75937   0.257187  0.809281
153  H   0.267161  0.76265   0.658961
154  H   0.767161  0.26265   0.658961
155  Br  0.314614  0.718773  0.572953
156  Br  0.814614  0.218773  0.572953
157  Cl  0.403671  0.676804  0.495162
158  Cl  0.903671  0.176804  0.495162
159  C  0.194905  0.789405  0.255002
160  C  0.694905  0.289405  0.255002
161  F  0.223089  0.769961  0.119132
162  F  0.723089  0.269961  0.119132
163  B  0.24063   0.742813  0.190715
164  B  0.74063   0.242813  0.190715
165  H   0.232839  0.73735   0.341035
166  H   0.732839  0.23735   0.341035
167  Br  0.185386  0.781227  0.427043
168  Br  0.685386  0.281226  0.427043
169  Cl  0.096329  0.823196  0.504834
170  Cl  0.596329  0.323196  0.504834
171  Br  0.079147  0.850029  0.093717
172  Br  0.579147  0.350028  0.093717
173  C  0.086658  0.841178  0.921655
174  C  0.586658  0.341178  0.921655
175  F  0.043396  0.836809  0.785803
176  F  0.543396  0.336809  0.785803
177  N  0.050325  0.828255  0.588064
178  N  0.550325  0.328255  0.588064
179  B  0.493907  0.341612  0.857379
180  B  0.993907  0.841612  0.857379
181  H   0.489605  0.348239  0.0077
182  H   0.989605  0.848239  0.0077
183  C  0.413344  0.325489  0.411671
184  C  0.913344  0.825489  0.411671
185  F  0.456606  0.329858  0.547527
186  F  0.956606  0.829858  0.547527
187  N  0.449677  0.338412  0.745264
188  N  0.949677  0.838412  0.745264
189  B  0.006095  0.825055  0.475949
190  B  0.506095  0.325055  0.475949
191  H   0.010397  0.818428  0.325627
192  H   0.510396  0.318428  0.325627
193  Br  0.420855  0.316638  0.239613
194  Br  0.920855  0.816638  0.239613
195  Cl  0.403673  0.343471  0.828496
196  Cl  0.903673  0.843471  0.828496
197  Br  0.185384  0.114559  0.093717
198  Br  0.685384  0.614559  0.093717
199  Cl  0.096327  0.156529  0.1715
200  Cl  0.596327  0.656529  0.1715
201  C  0.194904  0.12274   0.921655
202  C  0.694903  0.62274   0.921655
203  F  0.223088  0.103293  0.785803
204  F  0.723088  0.603293  0.785803
205  N  0.232455  0.111035  0.588064
206  N  0.732456  0.611035  0.588064
207  B  0.240629  0.076148  0.857379
208  B  0.740629  0.576148  0.857379
209  H   0.232838  0.070683  0.0077
210  H   0.732839  0.570683  0.0077
211  C  0.305095  0.043928  0.411671
212  C  0.805096  0.543928  0.411671
213  F  0.27691   0.063374  0.547527
214  F  0.77691   0.563374  0.547527
215  N  0.267543  0.055632  0.745264
216  N  0.767543  0.555632  0.745264
217  B  0.25937   0.09052   0.475949
218  B  0.75937   0.59052   0.475949
219  H   0.26716   0.095984  0.325627
220  H   0.76716   0.595984  0.325627
221  Br  0.314615  0.052108  0.239613
222  Br  0.814615  0.552108  0.239613
223  C  0.086656  0.174512  0.588325
224  C  0.586656  0.674512  0.588325
225  F  0.043394  0.170142  0.452469
226  F  0.543394  0.670142  0.452469
227  N  0.050323  0.161588  0.254732
228  N  0.550323  0.661588  0.254732
229  B  0.493905  0.674945  0.524047
230  B  0.993905  0.174945  0.524047
231  H   0.489603  0.681572  0.674369
232  H   0.989603  0.181572  0.674369
233  Br  0.079145  0.183362  0.760383
234  Br  0.579145  0.683362  0.760383
235  F  0.456605  0.663191  0.214193
236  F  0.956604  0.163191  0.214193
237  N  0.449675  0.671745  0.411932
238  N  0.949675  0.171745  0.411932
239  B  0.006093  0.158388  0.142616
240  B  0.506093  0.658388  0.142616
241  C  0.413342  0.658822  0.078337
242  C  0.913342  0.158822  0.078337
243  Br  0.420853  0.649972  0.906279
244  Br  0.920853  0.149972  0.906279
245  C  0.194905  0.456072  0.588325
246  C  0.694905  0.956072  0.588325
247  F  0.22309   0.436626  0.452469
248  F  0.72309   0.936626  0.452469
249  N  0.232457  0.444368  0.254732
250  N  0.732457  0.944368  0.254732
251  B  0.24063   0.40948   0.524047
252  B  0.74063   0.90948   0.524047
253  H   0.23284   0.404016  0.674369
254  H   0.73284   0.904016  0.674369
255  Br  0.185385  0.447892  0.760383
256  Br  0.685385  0.947892  0.760383
257  F  0.276912  0.396707  0.214193
258  F  0.776912  0.896707  0.214193
259  N  0.267545  0.388965  0.411932
260  N  0.767545  0.888965  0.411932
261  B  0.259371  0.423852  0.142616
262  B  0.759371  0.923852  0.142616
263  C  0.305096  0.37726   0.078337
264  C  0.805096  0.87726   0.078337
265  Br  0.314616  0.385441  0.906279
266  Br  0.814616  0.885441  0.906279
267  Br  0.235469  0.535412  0.093717
268  Br  0.735469  0.035412  0.093717
269  O  0.132293  0.502052  0.193192
270  O  0.632294  0.002052  0.193192
271  Cl  0.186629  0.540238  0.504834
272  Cl  0.686629  0.040238  0.504834
273  C  0.218438  0.536082  0.921655
274  C  0.718438  0.036082  0.921655
275  F  0.233516  0.559897  0.785803
276  F  0.733516  0.059898  0.785803
277  N  0.217219  0.56071   0.588064
278  N  0.717219  0.06071   0.588064
279  B  0.265464  0.582241  0.857379
280  B  0.765464  0.082241  0.857379
281  H   0.277556  0.581078  0.0077
282  H   0.777556  0.081078  0.0077
283  O  0.186933  0.51616   0.859862
284  O  0.686933  0.01616   0.859862
285  C  0.281561  0.630584  0.411671
286  C  0.781561  0.130584  0.411671
287  F  0.266483  0.606768  0.547527
288  F  0.766484  0.106768  0.547527
289  N  0.28278   0.605955  0.745264
290  N  0.78278   0.105955  0.745264
291  B  0.234535  0.584425  0.475949
292  B  0.734535  0.084425  0.475949
293  H   0.222443  0.585588  0.325627
294  H   0.722443  0.085588  0.325627
295  Br  0.26453   0.631254  0.239613
296  Br  0.76453   0.131253  0.239613
297  O  0.313066  0.650505  0.473468
298  O  0.813066  0.150505  0.473468
299  Cl  0.31337   0.626428  0.828496
300  Cl  0.813371  0.126428  0.828496
301  C  0.086655  0.507845  0.255002
302  C  0.586655  0.007845  0.255002
303  F  0.043397  0.503475  0.119132
304  F  0.543397  0.003475  0.119132
305  B  0.493904  0.008278  0.190715
306  B  0.993904  0.508278  0.190715
307  H   0.489605  0.014906  0.341035
308  H   0.989605  0.514906  0.341035
309  Br  0.079147  0.516694  0.427043
310  Br  0.579147  0.016694  0.427043
311  Cl  0.282956  0.696767  0.161828
312  Cl  0.782956  0.196767  0.161828
313  H   0.222444  0.918922  0.992292
314  H   0.722444  0.418922  0.992292
315  Cl  0.403672  0.010139  0.161828
316  Cl  0.903672  0.510139  0.161828
317  N  0.449678  0.005079  0.078595
318  N  0.949678  0.505079  0.078595
319  N  0.267542  0.722299  0.078595
320  N  0.767542  0.222299  0.078595
321  H   0.010395  0.151761  0.992292
322  H   0.510395  0.651761  0.992292
323  H   0.267161  0.429317  0.992292
324  H   0.767162  0.929317  0.992292
